Version 4
SHEET 1 1320 824
WIRE 208 96 160 96
WIRE 368 96 288 96
WIRE -464 112 -464 64
WIRE -320 112 -320 64
WIRE 160 192 160 96
WIRE 224 192 160 192
WIRE 368 192 368 96
WIRE 368 192 288 192
WIRE -464 224 -464 192
WIRE -400 224 -464 224
WIRE -320 224 -320 192
WIRE -320 224 -400 224
WIRE -400 272 -400 224
WIRE -16 288 -96 288
WIRE -240 304 -288 304
WIRE 48 320 -96 320
WIRE 160 320 160 192
WIRE 160 320 128 320
WIRE 224 320 160 320
WIRE 368 336 368 192
WIRE 368 336 288 336
WIRE 416 336 368 336
WIRE 224 352 160 352
WIRE 160 384 160 352
FLAG -400 272 0
FLAG -464 64 +V
FLAG -320 64 -V
FLAG 256 304 +V
FLAG 256 368 -V
FLAG -48 208 0
FLAG -48 128 VF
FLAG -288 304 VF
FLAG -16 288 0
FLAG 160 384 0
FLAG 416 336 Vout
SYMBOL Opamps\\AD8628 256 272 R0
SYMATTR InstName U2
SYMBOL cap 288 176 R90
WINDOW 0 0 32 VBottom 2
WINDOW 3 32 32 VTop 2
SYMATTR InstName C1
SYMATTR Value 5.6nF
SYMBOL res 304 80 R90
WINDOW 0 0 56 VBottom 2
WINDOW 3 32 56 VTop 2
SYMATTR InstName R1
SYMATTR Value 10G
SYMBOL voltage -464 96 R0
WINDOW 123 0 0 Left 0
WINDOW 39 0 0 Left 0
SYMATTR InstName V2
SYMATTR Value 12V
SYMBOL voltage -320 208 R180
WINDOW 0 24 96 Left 2
WINDOW 3 24 16 Left 2
WINDOW 123 0 0 Left 0
WINDOW 39 0 0 Left 0
SYMATTR InstName V3
SYMATTR Value 12V
SYMBOL voltage -48 112 R0
WINDOW 3 -157 -55 Left 2
WINDOW 123 0 0 Left 0
WINDOW 39 0 0 Left 0
SYMATTR InstName Force
SYMATTR Value PWL(0 0 1m 0 2m 7000 30000 0)
SYMBOL AutoGenerated\\SENSORE_PIEZO -176 304 R0
SYMATTR InstName U1
SYMBOL res 144 304 R90
WINDOW 0 0 56 VBottom 2
WINDOW 3 32 56 VTop 2
SYMATTR InstName R2
SYMATTR Value 1k
TEXT -234 416 Left 2 !.tran 500
TEXT 200 248 Left 2 !.ic V(C1)=0
